8
Lattice="6.650976715960062 0.0 0.0 1.7944324717428912e-11 3.8399431973376594 0.0 2.2169922386760463 7.059945957591855e-12 6.270600983151755" Properties=species:S:1:pos:R:3 pbc="T T T"
Si       6.88342529       0.64035680       4.59984864
Si       5.77492917       2.56032840       3.81602351
Si       3.55793693       2.56032840       4.59984864
Si       2.44944081       0.64035680       3.81602351
Si       5.77492917       2.56032840       1.46454814
Si       4.66643305       0.64035680       0.68072302
Si       2.44944081       0.64035680       1.46454814
Si       1.34094469       2.56032840       0.68072302
